<?xml version="1.0" encoding="utf-8"?>
<!DOCTYPE population SYSTEM "http://www.matsim.org/files/dtd/population_v6.dtd">

<population>

	<attributes>
		<attribute name="coordinateReferenceSystem" class="java.lang.String">Atlantis</attribute>
	</attributes>


<!-- ====================================================================== -->

	<person id="1">
		<attributes>
		</attributes>
		<plan selected="yes">
			<activity type="h" link="1" x="-25000.0" y="0.0" end_time="06:00:00" >
			</activity>
			<leg mode="car">
				<route type="links" start_link="1" end_link="20" trav_time="undefined" distance="25000.0" vehicleRefId="null">1 6 15 20</route>
			</leg>
			<activity type="w" link="20" x="10000.0" y="0.0" max_dur="00:10:00" >
			</activity>
			<leg mode="car">
				<route type="links" start_link="20" end_link="20" trav_time="undefined" distance="0.0" vehicleRefId="null">20</route>
			</leg>
			<activity type="w" link="20" x="10000.0" y="0.0" max_dur="03:30:00" >
			</activity>
			<leg mode="car">
				<route type="links" start_link="20" end_link="1" trav_time="undefined" distance="65000.0" vehicleRefId="null">20 21 22 23 1</route>
			</leg>
			<activity type="h" link="1" x="-25000.0" y="0.0" >
			</activity>
		</plan>

	</person>

<!-- ====================================================================== -->

	<person id="10">
		<attributes>
		</attributes>
		<plan selected="yes">
			<activity type="h" link="1" x="-25000.0" y="0.0" end_time="06:00:00" >
			</activity>
			<leg mode="car">
				<route type="links" start_link="1" end_link="20" trav_time="undefined" distance="25000.0" vehicleRefId="null">1 6 15 20</route>
			</leg>
			<activity type="w" link="20" x="10000.0" y="0.0" max_dur="00:30:00" >
			</activity>
			<leg mode="car">
				<route type="links" start_link="20" end_link="1" trav_time="undefined" distance="65000.0" vehicleRefId="null">20 21 22 23 1</route>
			</leg>
			<activity type="h" link="1" x="-25000.0" y="0.0" >
			</activity>
		</plan>

	</person>

<!-- ====================================================================== -->

	<person id="100">
		<attributes>
		</attributes>
		<plan selected="yes">
			<activity type="h" link="1" x="-25000.0" y="0.0" end_time="06:00:00" >
			</activity>
			<leg mode="car">
				<route type="links" start_link="1" end_link="20" trav_time="undefined" distance="25000.0" vehicleRefId="null">1 6 15 20</route>
			</leg>
			<activity type="w" link="20" x="10000.0" y="0.0" max_dur="00:30:00" >
			</activity>
			<leg mode="car">
				<route type="links" start_link="20" end_link="1" trav_time="undefined" distance="65000.0" vehicleRefId="null">20 21 22 23 1</route>
			</leg>
			<activity type="h" link="1" x="-25000.0" y="0.0" >
			</activity>
		</plan>

	</person>

<!-- ====================================================================== -->

	<person id="11">
		<attributes>
		</attributes>
		<plan selected="yes">
			<activity type="h" link="1" x="-25000.0" y="0.0" end_time="06:00:00" >
			</activity>
			<leg mode="car">
				<route type="links" start_link="1" end_link="20" trav_time="undefined" distance="25000.0" vehicleRefId="null">1 6 15 20</route>
			</leg>
			<activity type="w" link="20" x="10000.0" y="0.0" max_dur="00:30:00" >
			</activity>
			<leg mode="car">
				<route type="links" start_link="20" end_link="1" trav_time="undefined" distance="65000.0" vehicleRefId="null">20 21 22 23 1</route>
			</leg>
			<activity type="h" link="1" x="-25000.0" y="0.0" >
			</activity>
		</plan>

	</person>

<!-- ====================================================================== -->

	<person id="12">
		<attributes>
		</attributes>
		<plan selected="yes">
			<activity type="h" link="1" x="-25000.0" y="0.0" end_time="06:00:00" >
			</activity>
			<leg mode="car">
				<route type="links" start_link="1" end_link="20" trav_time="undefined" distance="25000.0" vehicleRefId="null">1 6 15 20</route>
			</leg>
			<activity type="w" link="20" x="10000.0" y="0.0" max_dur="00:30:00" >
			</activity>
			<leg mode="car">
				<route type="links" start_link="20" end_link="1" trav_time="undefined" distance="65000.0" vehicleRefId="null">20 21 22 23 1</route>
			</leg>
			<activity type="h" link="1" x="-25000.0" y="0.0" >
			</activity>
		</plan>

	</person>

<!-- ====================================================================== -->

	<person id="13">
		<attributes>
		</attributes>
		<plan selected="yes">
			<activity type="h" link="1" x="-25000.0" y="0.0" end_time="06:00:00" >
			</activity>
			<leg mode="car">
				<route type="links" start_link="1" end_link="20" trav_time="undefined" distance="25000.0" vehicleRefId="null">1 6 15 20</route>
			</leg>
			<activity type="w" link="20" x="10000.0" y="0.0" max_dur="00:30:00" >
			</activity>
			<leg mode="car">
				<route type="links" start_link="20" end_link="1" trav_time="undefined" distance="65000.0" vehicleRefId="null">20 21 22 23 1</route>
			</leg>
			<activity type="h" link="1" x="-25000.0" y="0.0" >
			</activity>
		</plan>

	</person>

<!-- ====================================================================== -->

	<person id="14">
		<attributes>
		</attributes>
		<plan selected="yes">
			<activity type="h" link="1" x="-25000.0" y="0.0" end_time="06:00:00" >
			</activity>
			<leg mode="car">
				<route type="links" start_link="1" end_link="20" trav_time="undefined" distance="25000.0" vehicleRefId="null">1 6 15 20</route>
			</leg>
			<activity type="w" link="20" x="10000.0" y="0.0" max_dur="00:30:00" >
			</activity>
			<leg mode="car">
				<route type="links" start_link="20" end_link="1" trav_time="undefined" distance="65000.0" vehicleRefId="null">20 21 22 23 1</route>
			</leg>
			<activity type="h" link="1" x="-25000.0" y="0.0" >
			</activity>
		</plan>

	</person>

<!-- ====================================================================== -->

	<person id="15">
		<attributes>
		</attributes>
		<plan selected="yes">
			<activity type="h" link="1" x="-25000.0" y="0.0" end_time="06:00:00" >
			</activity>
			<leg mode="car">
				<route type="links" start_link="1" end_link="20" trav_time="undefined" distance="25000.0" vehicleRefId="null">1 6 15 20</route>
			</leg>
			<activity type="w" link="20" x="10000.0" y="0.0" max_dur="00:30:00" >
			</activity>
			<leg mode="car">
				<route type="links" start_link="20" end_link="1" trav_time="undefined" distance="65000.0" vehicleRefId="null">20 21 22 23 1</route>
			</leg>
			<activity type="h" link="1" x="-25000.0" y="0.0" >
			</activity>
		</plan>

	</person>

<!-- ====================================================================== -->

	<person id="16">
		<attributes>
		</attributes>
		<plan selected="yes">
			<activity type="h" link="1" x="-25000.0" y="0.0" end_time="06:00:00" >
			</activity>
			<leg mode="car">
				<route type="links" start_link="1" end_link="20" trav_time="undefined" distance="25000.0" vehicleRefId="null">1 6 15 20</route>
			</leg>
			<activity type="w" link="20" x="10000.0" y="0.0" max_dur="00:30:00" >
			</activity>
			<leg mode="car">
				<route type="links" start_link="20" end_link="1" trav_time="undefined" distance="65000.0" vehicleRefId="null">20 21 22 23 1</route>
			</leg>
			<activity type="h" link="1" x="-25000.0" y="0.0" >
			</activity>
		</plan>

	</person>

<!-- ====================================================================== -->

	<person id="17">
		<attributes>
		</attributes>
		<plan selected="yes">
			<activity type="h" link="1" x="-25000.0" y="0.0" end_time="06:00:00" >
			</activity>
			<leg mode="car">
				<route type="links" start_link="1" end_link="20" trav_time="undefined" distance="25000.0" vehicleRefId="null">1 6 15 20</route>
			</leg>
			<activity type="w" link="20" x="10000.0" y="0.0" max_dur="00:30:00" >
			</activity>
			<leg mode="car">
				<route type="links" start_link="20" end_link="1" trav_time="undefined" distance="65000.0" vehicleRefId="null">20 21 22 23 1</route>
			</leg>
			<activity type="h" link="1" x="-25000.0" y="0.0" >
			</activity>
		</plan>

	</person>

<!-- ====================================================================== -->

	<person id="18">
		<attributes>
		</attributes>
		<plan selected="yes">
			<activity type="h" link="1" x="-25000.0" y="0.0" end_time="06:00:00" >
			</activity>
			<leg mode="car">
				<route type="links" start_link="1" end_link="20" trav_time="undefined" distance="25000.0" vehicleRefId="null">1 6 15 20</route>
			</leg>
			<activity type="w" link="20" x="10000.0" y="0.0" max_dur="00:30:00" >
			</activity>
			<leg mode="car">
				<route type="links" start_link="20" end_link="1" trav_time="undefined" distance="65000.0" vehicleRefId="null">20 21 22 23 1</route>
			</leg>
			<activity type="h" link="1" x="-25000.0" y="0.0" >
			</activity>
		</plan>

	</person>

<!-- ====================================================================== -->

	<person id="19">
		<attributes>
		</attributes>
		<plan selected="yes">
			<activity type="h" link="1" x="-25000.0" y="0.0" end_time="06:00:00" >
			</activity>
			<leg mode="car">
				<route type="links" start_link="1" end_link="20" trav_time="undefined" distance="25000.0" vehicleRefId="null">1 6 15 20</route>
			</leg>
			<activity type="w" link="20" x="10000.0" y="0.0" max_dur="00:30:00" >
			</activity>
			<leg mode="car">
				<route type="links" start_link="20" end_link="1" trav_time="undefined" distance="65000.0" vehicleRefId="null">20 21 22 23 1</route>
			</leg>
			<activity type="h" link="1" x="-25000.0" y="0.0" >
			</activity>
		</plan>

	</person>

<!-- ====================================================================== -->

	<person id="2">
		<attributes>
		</attributes>
		<plan selected="yes">
			<activity type="h" link="1" x="-25000.0" y="0.0" end_time="05:59:00" >
			</activity>
			<leg mode="car">
				<route type="links" start_link="1" end_link="20" trav_time="undefined" distance="25000.0" vehicleRefId="null">1 6 15 20</route>
			</leg>
			<activity type="w" link="20" x="10000.0" y="0.0" max_dur="02:30:00" >
			</activity>
			<leg mode="car">
				<route type="links" start_link="20" end_link="1" trav_time="undefined" distance="65000.0" vehicleRefId="null">20 21 22 23 1</route>
			</leg>
			<activity type="h" link="1" x="-25000.0" y="0.0" >
			</activity>
		</plan>

	</person>

<!-- ====================================================================== -->

	<person id="20">
		<attributes>
		</attributes>
		<plan selected="yes">
			<activity type="h" link="1" x="-25000.0" y="0.0" end_time="06:00:00" >
			</activity>
			<leg mode="car">
				<route type="links" start_link="1" end_link="20" trav_time="undefined" distance="25000.0" vehicleRefId="null">1 6 15 20</route>
			</leg>
			<activity type="w" link="20" x="10000.0" y="0.0" max_dur="00:30:00" >
			</activity>
			<leg mode="car">
				<route type="links" start_link="20" end_link="1" trav_time="undefined" distance="65000.0" vehicleRefId="null">20 21 22 23 1</route>
			</leg>
			<activity type="h" link="1" x="-25000.0" y="0.0" >
			</activity>
		</plan>

	</person>

<!-- ====================================================================== -->

	<person id="21">
		<attributes>
		</attributes>
		<plan selected="yes">
			<activity type="h" link="1" x="-25000.0" y="0.0" end_time="06:00:00" >
			</activity>
			<leg mode="car">
				<route type="links" start_link="1" end_link="20" trav_time="undefined" distance="25000.0" vehicleRefId="null">1 6 15 20</route>
			</leg>
			<activity type="w" link="20" x="10000.0" y="0.0" max_dur="00:30:00" >
			</activity>
			<leg mode="car">
				<route type="links" start_link="20" end_link="1" trav_time="undefined" distance="65000.0" vehicleRefId="null">20 21 22 23 1</route>
			</leg>
			<activity type="h" link="1" x="-25000.0" y="0.0" >
			</activity>
		</plan>

	</person>

<!-- ====================================================================== -->

	<person id="22">
		<attributes>
		</attributes>
		<plan selected="yes">
			<activity type="h" link="1" x="-25000.0" y="0.0" end_time="06:00:00" >
			</activity>
			<leg mode="car">
				<route type="links" start_link="1" end_link="20" trav_time="undefined" distance="25000.0" vehicleRefId="null">1 6 15 20</route>
			</leg>
			<activity type="w" link="20" x="10000.0" y="0.0" max_dur="00:30:00" >
			</activity>
			<leg mode="car">
				<route type="links" start_link="20" end_link="1" trav_time="undefined" distance="65000.0" vehicleRefId="null">20 21 22 23 1</route>
			</leg>
			<activity type="h" link="1" x="-25000.0" y="0.0" >
			</activity>
		</plan>

	</person>

<!-- ====================================================================== -->

	<person id="23">
		<attributes>
		</attributes>
		<plan selected="yes">
			<activity type="h" link="1" x="-25000.0" y="0.0" end_time="06:00:00" >
			</activity>
			<leg mode="car">
				<route type="links" start_link="1" end_link="20" trav_time="undefined" distance="25000.0" vehicleRefId="null">1 6 15 20</route>
			</leg>
			<activity type="w" link="20" x="10000.0" y="0.0" max_dur="00:30:00" >
			</activity>
			<leg mode="car">
				<route type="links" start_link="20" end_link="1" trav_time="undefined" distance="65000.0" vehicleRefId="null">20 21 22 23 1</route>
			</leg>
			<activity type="h" link="1" x="-25000.0" y="0.0" >
			</activity>
		</plan>

	</person>

<!-- ====================================================================== -->

	<person id="24">
		<attributes>
		</attributes>
		<plan selected="yes">
			<activity type="h" link="1" x="-25000.0" y="0.0" end_time="06:00:00" >
			</activity>
			<leg mode="car">
				<route type="links" start_link="1" end_link="20" trav_time="undefined" distance="25000.0" vehicleRefId="null">1 6 15 20</route>
			</leg>
			<activity type="w" link="20" x="10000.0" y="0.0" max_dur="00:30:00" >
			</activity>
			<leg mode="car">
				<route type="links" start_link="20" end_link="1" trav_time="undefined" distance="65000.0" vehicleRefId="null">20 21 22 23 1</route>
			</leg>
			<activity type="h" link="1" x="-25000.0" y="0.0" >
			</activity>
		</plan>

	</person>

<!-- ====================================================================== -->

	<person id="25">
		<attributes>
		</attributes>
		<plan selected="yes">
			<activity type="h" link="1" x="-25000.0" y="0.0" end_time="06:00:00" >
			</activity>
			<leg mode="car">
				<route type="links" start_link="1" end_link="20" trav_time="undefined" distance="25000.0" vehicleRefId="null">1 6 15 20</route>
			</leg>
			<activity type="w" link="20" x="10000.0" y="0.0" max_dur="00:30:00" >
			</activity>
			<leg mode="car">
				<route type="links" start_link="20" end_link="1" trav_time="undefined" distance="65000.0" vehicleRefId="null">20 21 22 23 1</route>
			</leg>
			<activity type="h" link="1" x="-25000.0" y="0.0" >
			</activity>
		</plan>

	</person>

<!-- ====================================================================== -->

	<person id="26">
		<attributes>
		</attributes>
		<plan selected="yes">
			<activity type="h" link="1" x="-25000.0" y="0.0" end_time="06:00:00" >
			</activity>
			<leg mode="car">
				<route type="links" start_link="1" end_link="20" trav_time="undefined" distance="25000.0" vehicleRefId="null">1 6 15 20</route>
			</leg>
			<activity type="w" link="20" x="10000.0" y="0.0" max_dur="00:30:00" >
			</activity>
			<leg mode="car">
				<route type="links" start_link="20" end_link="1" trav_time="undefined" distance="65000.0" vehicleRefId="null">20 21 22 23 1</route>
			</leg>
			<activity type="h" link="1" x="-25000.0" y="0.0" >
			</activity>
		</plan>

	</person>

<!-- ====================================================================== -->

	<person id="27">
		<attributes>
		</attributes>
		<plan selected="yes">
			<activity type="h" link="1" x="-25000.0" y="0.0" end_time="06:00:00" >
			</activity>
			<leg mode="car">
				<route type="links" start_link="1" end_link="20" trav_time="undefined" distance="25000.0" vehicleRefId="null">1 6 15 20</route>
			</leg>
			<activity type="w" link="20" x="10000.0" y="0.0" max_dur="00:30:00" >
			</activity>
			<leg mode="car">
				<route type="links" start_link="20" end_link="1" trav_time="undefined" distance="65000.0" vehicleRefId="null">20 21 22 23 1</route>
			</leg>
			<activity type="h" link="1" x="-25000.0" y="0.0" >
			</activity>
		</plan>

	</person>

<!-- ====================================================================== -->

	<person id="28">
		<attributes>
		</attributes>
		<plan selected="yes">
			<activity type="h" link="1" x="-25000.0" y="0.0" end_time="06:00:00" >
			</activity>
			<leg mode="car">
				<route type="links" start_link="1" end_link="20" trav_time="undefined" distance="25000.0" vehicleRefId="null">1 6 15 20</route>
			</leg>
			<activity type="w" link="20" x="10000.0" y="0.0" max_dur="00:30:00" >
			</activity>
			<leg mode="car">
				<route type="links" start_link="20" end_link="1" trav_time="undefined" distance="65000.0" vehicleRefId="null">20 21 22 23 1</route>
			</leg>
			<activity type="h" link="1" x="-25000.0" y="0.0" >
			</activity>
		</plan>

	</person>

<!-- ====================================================================== -->

	<person id="29">
		<attributes>
		</attributes>
		<plan selected="yes">
			<activity type="h" link="1" x="-25000.0" y="0.0" end_time="06:00:00" >
			</activity>
			<leg mode="car">
				<route type="links" start_link="1" end_link="20" trav_time="undefined" distance="25000.0" vehicleRefId="null">1 6 15 20</route>
			</leg>
			<activity type="w" link="20" x="10000.0" y="0.0" max_dur="00:30:00" >
			</activity>
			<leg mode="car">
				<route type="links" start_link="20" end_link="1" trav_time="undefined" distance="65000.0" vehicleRefId="null">20 21 22 23 1</route>
			</leg>
			<activity type="h" link="1" x="-25000.0" y="0.0" >
			</activity>
		</plan>

	</person>

<!-- ====================================================================== -->

	<person id="3">
		<attributes>
		</attributes>
		<plan selected="yes">
			<activity type="h" link="1" x="-25000.0" y="0.0" end_time="05:58:30" >
			</activity>
			<leg mode="car">
				<route type="links" start_link="1" end_link="20" trav_time="undefined" distance="25000.0" vehicleRefId="null">1 6 15 20</route>
			</leg>
			<activity type="w" link="20" x="10000.0" y="0.0" max_dur="01:30:00" >
			</activity>
			<leg mode="car">
				<route type="links" start_link="20" end_link="1" trav_time="undefined" distance="65000.0" vehicleRefId="null">20 21 22 23 1</route>
			</leg>
			<activity type="h" link="1" x="-25000.0" y="0.0" >
			</activity>
		</plan>

	</person>

<!-- ====================================================================== -->

	<person id="30">
		<attributes>
		</attributes>
		<plan selected="yes">
			<activity type="h" link="1" x="-25000.0" y="0.0" end_time="06:00:00" >
			</activity>
			<leg mode="car">
				<route type="links" start_link="1" end_link="20" trav_time="undefined" distance="25000.0" vehicleRefId="null">1 6 15 20</route>
			</leg>
			<activity type="w" link="20" x="10000.0" y="0.0" max_dur="00:30:00" >
			</activity>
			<leg mode="car">
				<route type="links" start_link="20" end_link="1" trav_time="undefined" distance="65000.0" vehicleRefId="null">20 21 22 23 1</route>
			</leg>
			<activity type="h" link="1" x="-25000.0" y="0.0" >
			</activity>
		</plan>

	</person>

<!-- ====================================================================== -->

	<person id="31">
		<attributes>
		</attributes>
		<plan selected="yes">
			<activity type="h" link="1" x="-25000.0" y="0.0" end_time="06:00:00" >
			</activity>
			<leg mode="car">
				<route type="links" start_link="1" end_link="20" trav_time="undefined" distance="25000.0" vehicleRefId="null">1 6 15 20</route>
			</leg>
			<activity type="w" link="20" x="10000.0" y="0.0" max_dur="00:30:00" >
			</activity>
			<leg mode="car">
				<route type="links" start_link="20" end_link="1" trav_time="undefined" distance="65000.0" vehicleRefId="null">20 21 22 23 1</route>
			</leg>
			<activity type="h" link="1" x="-25000.0" y="0.0" >
			</activity>
		</plan>

	</person>

<!-- ====================================================================== -->

	<person id="32">
		<attributes>
		</attributes>
		<plan selected="yes">
			<activity type="h" link="1" x="-25000.0" y="0.0" end_time="06:00:00" >
			</activity>
			<leg mode="car">
				<route type="links" start_link="1" end_link="20" trav_time="undefined" distance="25000.0" vehicleRefId="null">1 6 15 20</route>
			</leg>
			<activity type="w" link="20" x="10000.0" y="0.0" max_dur="00:30:00" >
			</activity>
			<leg mode="car">
				<route type="links" start_link="20" end_link="1" trav_time="undefined" distance="65000.0" vehicleRefId="null">20 21 22 23 1</route>
			</leg>
			<activity type="h" link="1" x="-25000.0" y="0.0" >
			</activity>
		</plan>

	</person>

<!-- ====================================================================== -->

	<person id="33">
		<attributes>
		</attributes>
		<plan selected="yes">
			<activity type="h" link="1" x="-25000.0" y="0.0" end_time="06:00:00" >
			</activity>
			<leg mode="car">
				<route type="links" start_link="1" end_link="20" trav_time="undefined" distance="25000.0" vehicleRefId="null">1 6 15 20</route>
			</leg>
			<activity type="w" link="20" x="10000.0" y="0.0" max_dur="00:30:00" >
			</activity>
			<leg mode="car">
				<route type="links" start_link="20" end_link="1" trav_time="undefined" distance="65000.0" vehicleRefId="null">20 21 22 23 1</route>
			</leg>
			<activity type="h" link="1" x="-25000.0" y="0.0" >
			</activity>
		</plan>

	</person>

<!-- ====================================================================== -->

	<person id="34">
		<attributes>
		</attributes>
		<plan selected="yes">
			<activity type="h" link="1" x="-25000.0" y="0.0" end_time="06:00:00" >
			</activity>
			<leg mode="car">
				<route type="links" start_link="1" end_link="20" trav_time="undefined" distance="25000.0" vehicleRefId="null">1 6 15 20</route>
			</leg>
			<activity type="w" link="20" x="10000.0" y="0.0" max_dur="00:30:00" >
			</activity>
			<leg mode="car">
				<route type="links" start_link="20" end_link="1" trav_time="undefined" distance="65000.0" vehicleRefId="null">20 21 22 23 1</route>
			</leg>
			<activity type="h" link="1" x="-25000.0" y="0.0" >
			</activity>
		</plan>

	</person>

<!-- ====================================================================== -->

	<person id="35">
		<attributes>
		</attributes>
		<plan selected="yes">
			<activity type="h" link="1" x="-25000.0" y="0.0" end_time="06:00:00" >
			</activity>
			<leg mode="car">
				<route type="links" start_link="1" end_link="20" trav_time="undefined" distance="25000.0" vehicleRefId="null">1 6 15 20</route>
			</leg>
			<activity type="w" link="20" x="10000.0" y="0.0" max_dur="00:30:00" >
			</activity>
			<leg mode="car">
				<route type="links" start_link="20" end_link="1" trav_time="undefined" distance="65000.0" vehicleRefId="null">20 21 22 23 1</route>
			</leg>
			<activity type="h" link="1" x="-25000.0" y="0.0" >
			</activity>
		</plan>

	</person>

<!-- ====================================================================== -->

	<person id="36">
		<attributes>
		</attributes>
		<plan selected="yes">
			<activity type="h" link="1" x="-25000.0" y="0.0" end_time="06:00:00" >
			</activity>
			<leg mode="car">
				<route type="links" start_link="1" end_link="20" trav_time="undefined" distance="25000.0" vehicleRefId="null">1 6 15 20</route>
			</leg>
			<activity type="w" link="20" x="10000.0" y="0.0" max_dur="00:30:00" >
			</activity>
			<leg mode="car">
				<route type="links" start_link="20" end_link="1" trav_time="undefined" distance="65000.0" vehicleRefId="null">20 21 22 23 1</route>
			</leg>
			<activity type="h" link="1" x="-25000.0" y="0.0" >
			</activity>
		</plan>

	</person>

<!-- ====================================================================== -->

	<person id="37">
		<attributes>
		</attributes>
		<plan selected="yes">
			<activity type="h" link="1" x="-25000.0" y="0.0" end_time="06:00:00" >
			</activity>
			<leg mode="car">
				<route type="links" start_link="1" end_link="20" trav_time="undefined" distance="25000.0" vehicleRefId="null">1 6 15 20</route>
			</leg>
			<activity type="w" link="20" x="10000.0" y="0.0" max_dur="00:30:00" >
			</activity>
			<leg mode="car">
				<route type="links" start_link="20" end_link="1" trav_time="undefined" distance="65000.0" vehicleRefId="null">20 21 22 23 1</route>
			</leg>
			<activity type="h" link="1" x="-25000.0" y="0.0" >
			</activity>
		</plan>

	</person>

<!-- ====================================================================== -->

	<person id="38">
		<attributes>
		</attributes>
		<plan selected="yes">
			<activity type="h" link="1" x="-25000.0" y="0.0" end_time="06:00:00" >
			</activity>
			<leg mode="car">
				<route type="links" start_link="1" end_link="20" trav_time="undefined" distance="25000.0" vehicleRefId="null">1 6 15 20</route>
			</leg>
			<activity type="w" link="20" x="10000.0" y="0.0" max_dur="00:30:00" >
			</activity>
			<leg mode="car">
				<route type="links" start_link="20" end_link="1" trav_time="undefined" distance="65000.0" vehicleRefId="null">20 21 22 23 1</route>
			</leg>
			<activity type="h" link="1" x="-25000.0" y="0.0" >
			</activity>
		</plan>

	</person>

<!-- ====================================================================== -->

	<person id="39">
		<attributes>
		</attributes>
		<plan selected="yes">
			<activity type="h" link="1" x="-25000.0" y="0.0" end_time="06:00:00" >
			</activity>
			<leg mode="car">
				<route type="links" start_link="1" end_link="20" trav_time="undefined" distance="25000.0" vehicleRefId="null">1 6 15 20</route>
			</leg>
			<activity type="w" link="20" x="10000.0" y="0.0" max_dur="00:30:00" >
			</activity>
			<leg mode="car">
				<route type="links" start_link="20" end_link="1" trav_time="undefined" distance="65000.0" vehicleRefId="null">20 21 22 23 1</route>
			</leg>
			<activity type="h" link="1" x="-25000.0" y="0.0" >
			</activity>
		</plan>

	</person>

<!-- ====================================================================== -->

	<person id="4">
		<attributes>
		</attributes>
		<plan selected="yes">
			<activity type="h" link="1" x="-25000.0" y="0.0" end_time="05:59:30" >
			</activity>
			<leg mode="car">
				<route type="links" start_link="1" end_link="20" trav_time="undefined" distance="25000.0" vehicleRefId="null">1 6 15 20</route>
			</leg>
			<activity type="w" link="20" x="10000.0" y="0.0" max_dur="02:30:00" >
			</activity>
			<leg mode="car">
				<route type="links" start_link="20" end_link="1" trav_time="undefined" distance="65000.0" vehicleRefId="null">20 21 22 23 1</route>
			</leg>
			<activity type="h" link="1" x="-25000.0" y="0.0" >
			</activity>
		</plan>

	</person>

<!-- ====================================================================== -->

	<person id="40">
		<attributes>
		</attributes>
		<plan selected="yes">
			<activity type="h" link="1" x="-25000.0" y="0.0" end_time="06:00:00" >
			</activity>
			<leg mode="car">
				<route type="links" start_link="1" end_link="20" trav_time="undefined" distance="25000.0" vehicleRefId="null">1 6 15 20</route>
			</leg>
			<activity type="w" link="20" x="10000.0" y="0.0" max_dur="00:30:00" >
			</activity>
			<leg mode="car">
				<route type="links" start_link="20" end_link="1" trav_time="undefined" distance="65000.0" vehicleRefId="null">20 21 22 23 1</route>
			</leg>
			<activity type="h" link="1" x="-25000.0" y="0.0" >
			</activity>
		</plan>

	</person>

<!-- ====================================================================== -->

	<person id="41">
		<attributes>
		</attributes>
		<plan selected="yes">
			<activity type="h" link="1" x="-25000.0" y="0.0" end_time="06:00:00" >
			</activity>
			<leg mode="car">
				<route type="links" start_link="1" end_link="20" trav_time="undefined" distance="25000.0" vehicleRefId="null">1 6 15 20</route>
			</leg>
			<activity type="w" link="20" x="10000.0" y="0.0" max_dur="00:30:00" >
			</activity>
			<leg mode="car">
				<route type="links" start_link="20" end_link="1" trav_time="undefined" distance="65000.0" vehicleRefId="null">20 21 22 23 1</route>
			</leg>
			<activity type="h" link="1" x="-25000.0" y="0.0" >
			</activity>
		</plan>

	</person>

<!-- ====================================================================== -->

	<person id="42">
		<attributes>
		</attributes>
		<plan selected="yes">
			<activity type="h" link="1" x="-25000.0" y="0.0" end_time="06:00:00" >
			</activity>
			<leg mode="car">
				<route type="links" start_link="1" end_link="20" trav_time="undefined" distance="25000.0" vehicleRefId="null">1 6 15 20</route>
			</leg>
			<activity type="w" link="20" x="10000.0" y="0.0" max_dur="00:30:00" >
			</activity>
			<leg mode="car">
				<route type="links" start_link="20" end_link="1" trav_time="undefined" distance="65000.0" vehicleRefId="null">20 21 22 23 1</route>
			</leg>
			<activity type="h" link="1" x="-25000.0" y="0.0" >
			</activity>
		</plan>

	</person>

<!-- ====================================================================== -->

	<person id="43">
		<attributes>
		</attributes>
		<plan selected="yes">
			<activity type="h" link="1" x="-25000.0" y="0.0" end_time="06:00:00" >
			</activity>
			<leg mode="car">
				<route type="links" start_link="1" end_link="20" trav_time="undefined" distance="25000.0" vehicleRefId="null">1 6 15 20</route>
			</leg>
			<activity type="w" link="20" x="10000.0" y="0.0" max_dur="00:30:00" >
			</activity>
			<leg mode="car">
				<route type="links" start_link="20" end_link="1" trav_time="undefined" distance="65000.0" vehicleRefId="null">20 21 22 23 1</route>
			</leg>
			<activity type="h" link="1" x="-25000.0" y="0.0" >
			</activity>
		</plan>

	</person>

<!-- ====================================================================== -->

	<person id="44">
		<attributes>
		</attributes>
		<plan selected="yes">